* NGSPICE file created from pes_vedic_mul.ext - technology: sky130A

* Black-box entry subcircuit for sky130_ef_sc_hd__decap_12 abstract view
.subckt sky130_ef_sc_hd__decap_12 VGND VPWR VPB VNB
.ends

* Black-box entry subcircuit for sky130_fd_sc_hd__and3_1 abstract view
.subckt sky130_fd_sc_hd__and3_1 A B C VGND VNB VPB VPWR X
.ends

* Black-box entry subcircuit for sky130_fd_sc_hd__nand2_1 abstract view
.subckt sky130_fd_sc_hd__nand2_1 A B VGND VNB VPB VPWR Y
.ends

* Black-box entry subcircuit for sky130_fd_sc_hd__clkbuf_1 abstract view
.subckt sky130_fd_sc_hd__clkbuf_1 A VGND VNB VPB VPWR X
.ends

* Black-box entry subcircuit for sky130_fd_sc_hd__fill_2 abstract view
.subckt sky130_fd_sc_hd__fill_2 VGND VNB VPB VPWR
.ends

* Black-box entry subcircuit for sky130_fd_sc_hd__xor2_1 abstract view
.subckt sky130_fd_sc_hd__xor2_1 A B VGND VNB VPB VPWR X
.ends

* Black-box entry subcircuit for sky130_fd_sc_hd__xnor2_1 abstract view
.subckt sky130_fd_sc_hd__xnor2_1 A B VGND VNB VPB VPWR Y
.ends

* Black-box entry subcircuit for sky130_fd_sc_hd__fill_1 abstract view
.subckt sky130_fd_sc_hd__fill_1 VGND VNB VPB VPWR
.ends

* Black-box entry subcircuit for sky130_fd_sc_hd__decap_8 abstract view
.subckt sky130_fd_sc_hd__decap_8 VGND VNB VPB VPWR
.ends

* Black-box entry subcircuit for sky130_fd_sc_hd__or2_1 abstract view
.subckt sky130_fd_sc_hd__or2_1 A B VGND VNB VPB VPWR X
.ends

* Black-box entry subcircuit for sky130_fd_sc_hd__decap_3 abstract view
.subckt sky130_fd_sc_hd__decap_3 VGND VNB VPB VPWR
.ends

* Black-box entry subcircuit for sky130_fd_sc_hd__a31o_1 abstract view
.subckt sky130_fd_sc_hd__a31o_1 A1 A2 A3 B1 VGND VNB VPB VPWR X
.ends

* Black-box entry subcircuit for sky130_fd_sc_hd__tapvpwrvgnd_1 abstract view
.subckt sky130_fd_sc_hd__tapvpwrvgnd_1 VGND VPWR
.ends

* Black-box entry subcircuit for sky130_fd_sc_hd__clkbuf_4 abstract view
.subckt sky130_fd_sc_hd__clkbuf_4 A VGND VNB VPB VPWR X
.ends

* Black-box entry subcircuit for sky130_fd_sc_hd__decap_6 abstract view
.subckt sky130_fd_sc_hd__decap_6 VGND VNB VPB VPWR
.ends

* Black-box entry subcircuit for sky130_fd_sc_hd__buf_2 abstract view
.subckt sky130_fd_sc_hd__buf_2 A VGND VNB VPB VPWR X
.ends

* Black-box entry subcircuit for sky130_fd_sc_hd__and2_1 abstract view
.subckt sky130_fd_sc_hd__and2_1 A B VGND VNB VPB VPWR X
.ends

* Black-box entry subcircuit for sky130_fd_sc_hd__nand3_1 abstract view
.subckt sky130_fd_sc_hd__nand3_1 A B C VGND VNB VPB VPWR Y
.ends

* Black-box entry subcircuit for sky130_fd_sc_hd__buf_6 abstract view
.subckt sky130_fd_sc_hd__buf_6 A VGND VNB VPB VPWR X
.ends

* Black-box entry subcircuit for sky130_fd_sc_hd__a21oi_2 abstract view
.subckt sky130_fd_sc_hd__a21oi_2 A1 A2 B1 VGND VNB VPB VPWR Y
.ends

* Black-box entry subcircuit for sky130_fd_sc_hd__decap_4 abstract view
.subckt sky130_fd_sc_hd__decap_4 VGND VNB VPB VPWR
.ends

* Black-box entry subcircuit for sky130_fd_sc_hd__dlymetal6s2s_1 abstract view
.subckt sky130_fd_sc_hd__dlymetal6s2s_1 A VGND VNB VPB VPWR X
.ends

* Black-box entry subcircuit for sky130_fd_sc_hd__nand2_2 abstract view
.subckt sky130_fd_sc_hd__nand2_2 A B VGND VNB VPB VPWR Y
.ends

* Black-box entry subcircuit for sky130_fd_sc_hd__a21o_1 abstract view
.subckt sky130_fd_sc_hd__a21o_1 A1 A2 B1 VGND VNB VPB VPWR X
.ends

* Black-box entry subcircuit for sky130_fd_sc_hd__a21oi_1 abstract view
.subckt sky130_fd_sc_hd__a21oi_1 A1 A2 B1 VGND VNB VPB VPWR Y
.ends

* Black-box entry subcircuit for sky130_fd_sc_hd__inv_2 abstract view
.subckt sky130_fd_sc_hd__inv_2 A VGND VNB VPB VPWR Y
.ends

* Black-box entry subcircuit for sky130_fd_sc_hd__nor2_1 abstract view
.subckt sky130_fd_sc_hd__nor2_1 A B VGND VNB VPB VPWR Y
.ends

* Black-box entry subcircuit for sky130_fd_sc_hd__a21bo_1 abstract view
.subckt sky130_fd_sc_hd__a21bo_1 A1 A2 B1_N VGND VNB VPB VPWR X
.ends

* Black-box entry subcircuit for sky130_fd_sc_hd__dlygate4sd1_1 abstract view
.subckt sky130_fd_sc_hd__dlygate4sd1_1 A VGND VNB VPB VPWR X
.ends

* Black-box entry subcircuit for sky130_fd_sc_hd__a21boi_1 abstract view
.subckt sky130_fd_sc_hd__a21boi_1 A1 A2 B1_N VGND VNB VPB VPWR Y
.ends

* Black-box entry subcircuit for sky130_fd_sc_hd__or3_4 abstract view
.subckt sky130_fd_sc_hd__or3_4 A B C VGND VNB VPB VPWR X
.ends

* Black-box entry subcircuit for sky130_fd_sc_hd__and3b_1 abstract view
.subckt sky130_fd_sc_hd__and3b_1 A_N B C VGND VNB VPB VPWR X
.ends

* Black-box entry subcircuit for sky130_fd_sc_hd__o21bai_1 abstract view
.subckt sky130_fd_sc_hd__o21bai_1 A1 A2 B1_N VGND VNB VPB VPWR Y
.ends

* Black-box entry subcircuit for sky130_fd_sc_hd__a211o_1 abstract view
.subckt sky130_fd_sc_hd__a211o_1 A1 A2 B1 C1 VGND VNB VPB VPWR X
.ends

* Black-box entry subcircuit for sky130_fd_sc_hd__o31a_1 abstract view
.subckt sky130_fd_sc_hd__o31a_1 A1 A2 A3 B1 VGND VNB VPB VPWR X
.ends

* Black-box entry subcircuit for sky130_fd_sc_hd__a22o_1 abstract view
.subckt sky130_fd_sc_hd__a22o_1 A1 A2 B1 B2 VGND VNB VPB VPWR X
.ends

* Black-box entry subcircuit for sky130_fd_sc_hd__and2b_1 abstract view
.subckt sky130_fd_sc_hd__and2b_1 A_N B VGND VNB VPB VPWR X
.ends

* Black-box entry subcircuit for sky130_fd_sc_hd__o21ai_1 abstract view
.subckt sky130_fd_sc_hd__o21ai_1 A1 A2 B1 VGND VNB VPB VPWR Y
.ends

* Black-box entry subcircuit for sky130_fd_sc_hd__or3_1 abstract view
.subckt sky130_fd_sc_hd__or3_1 A B C VGND VNB VPB VPWR X
.ends

* Black-box entry subcircuit for sky130_fd_sc_hd__o21ai_2 abstract view
.subckt sky130_fd_sc_hd__o21ai_2 A1 A2 B1 VGND VNB VPB VPWR Y
.ends

* Black-box entry subcircuit for sky130_fd_sc_hd__a22oi_1 abstract view
.subckt sky130_fd_sc_hd__a22oi_1 A1 A2 B1 B2 VGND VNB VPB VPWR Y
.ends

* Black-box entry subcircuit for sky130_fd_sc_hd__xor2_2 abstract view
.subckt sky130_fd_sc_hd__xor2_2 A B VGND VNB VPB VPWR X
.ends

* Black-box entry subcircuit for sky130_fd_sc_hd__nand4_1 abstract view
.subckt sky130_fd_sc_hd__nand4_1 A B C D VGND VNB VPB VPWR Y
.ends

* Black-box entry subcircuit for sky130_fd_sc_hd__nand2_4 abstract view
.subckt sky130_fd_sc_hd__nand2_4 A B VGND VNB VPB VPWR Y
.ends

* Black-box entry subcircuit for sky130_fd_sc_hd__clkbuf_2 abstract view
.subckt sky130_fd_sc_hd__clkbuf_2 A VGND VNB VPB VPWR X
.ends

* Black-box entry subcircuit for sky130_fd_sc_hd__and4_1 abstract view
.subckt sky130_fd_sc_hd__and4_1 A B C D VGND VNB VPB VPWR X
.ends

* Black-box entry subcircuit for sky130_fd_sc_hd__or2b_1 abstract view
.subckt sky130_fd_sc_hd__or2b_1 A B_N VGND VNB VPB VPWR X
.ends

* Black-box entry subcircuit for sky130_fd_sc_hd__buf_8 abstract view
.subckt sky130_fd_sc_hd__buf_8 A VGND VNB VPB VPWR X
.ends

* Black-box entry subcircuit for sky130_fd_sc_hd__o2111a_1 abstract view
.subckt sky130_fd_sc_hd__o2111a_1 A1 A2 B1 C1 D1 VGND VNB VPB VPWR X
.ends

* Black-box entry subcircuit for sky130_fd_sc_hd__buf_4 abstract view
.subckt sky130_fd_sc_hd__buf_4 A VGND VNB VPB VPWR X
.ends

* Black-box entry subcircuit for sky130_fd_sc_hd__buf_1 abstract view
.subckt sky130_fd_sc_hd__buf_1 A VGND VNB VPB VPWR X
.ends

* Black-box entry subcircuit for sky130_fd_sc_hd__a32o_1 abstract view
.subckt sky130_fd_sc_hd__a32o_1 A1 A2 A3 B1 B2 VGND VNB VPB VPWR X
.ends

* Black-box entry subcircuit for sky130_fd_sc_hd__xnor2_2 abstract view
.subckt sky130_fd_sc_hd__xnor2_2 A B VGND VNB VPB VPWR Y
.ends

* Black-box entry subcircuit for sky130_fd_sc_hd__and2_4 abstract view
.subckt sky130_fd_sc_hd__and2_4 A B VGND VNB VPB VPWR X
.ends

* Black-box entry subcircuit for sky130_fd_sc_hd__or2b_4 abstract view
.subckt sky130_fd_sc_hd__or2b_4 A B_N VGND VNB VPB VPWR X
.ends

* Black-box entry subcircuit for sky130_fd_sc_hd__nor3_1 abstract view
.subckt sky130_fd_sc_hd__nor3_1 A B C VGND VNB VPB VPWR Y
.ends

* Black-box entry subcircuit for sky130_fd_sc_hd__or4_4 abstract view
.subckt sky130_fd_sc_hd__or4_4 A B C D VGND VNB VPB VPWR X
.ends

* Black-box entry subcircuit for sky130_fd_sc_hd__o21a_1 abstract view
.subckt sky130_fd_sc_hd__o21a_1 A1 A2 B1 VGND VNB VPB VPWR X
.ends

* Black-box entry subcircuit for sky130_fd_sc_hd__or3b_4 abstract view
.subckt sky130_fd_sc_hd__or3b_4 A B C_N VGND VNB VPB VPWR X
.ends

* Black-box entry subcircuit for sky130_fd_sc_hd__nand4_2 abstract view
.subckt sky130_fd_sc_hd__nand4_2 A B C D VGND VNB VPB VPWR Y
.ends

.subckt pes_vedic_mul VGND VPWR a[0] a[1] a[2] a[3] a[4] a[5] a[6] a[7] b[0] b[1]
+ b[2] b[3] b[4] b[5] b[6] b[7] prod[0] prod[10] prod[11] prod[12] prod[13] prod[14]
+ prod[15] prod[1] prod[2] prod[3] prod[4] prod[5] prod[6] prod[7] prod[8] prod[9]
XFILLER_0_27_71 VGND VPWR VPWR VGND sky130_ef_sc_hd__decap_12
XFILLER_0_23_18 VGND VPWR VPWR VGND sky130_ef_sc_hd__decap_12
X_432_ _121_ _162_ _164_ VGND VGND VPWR VPWR _196_ sky130_fd_sc_hd__and3_1
X_363_ _126_ _127_ VGND VGND VPWR VPWR _128_ sky130_fd_sc_hd__nand2_1
X_501_ _247_ net2 VGND VGND VPWR VPWR _251_ sky130_fd_sc_hd__nand2_1
Xrebuffer7 _264_ VGND VGND VPWR VPWR net39 sky130_fd_sc_hd__clkbuf_1
XFILLER_0_18_29 VGND VGND VPWR VPWR sky130_fd_sc_hd__fill_2
X_415_ _152_ _179_ VGND VGND VPWR VPWR net18 sky130_fd_sc_hd__xor2_1
X_346_ _092_ _110_ VGND VGND VPWR VPWR _111_ sky130_fd_sc_hd__xnor2_1
XFILLER_0_24_83 VGND VGND VPWR VPWR sky130_fd_sc_hd__fill_1
XFILLER_0_0_29 VGND VGND VPWR VPWR sky130_fd_sc_hd__decap_8
X_329_ _058_ _066_ VGND VGND VPWR VPWR _094_ sky130_fd_sc_hd__or2_1
XPHY_EDGE_ROW_8_Left_36 VGND VGND VPWR VPWR sky130_fd_sc_hd__decap_3
XFILLER_0_26_29 VGND VPWR VPWR VGND sky130_ef_sc_hd__decap_12
X_594_ _272_ _270_ _281_ _313_ VGND VGND VPWR VPWR _029_ sky130_fd_sc_hd__a31o_1
Xrebuffer17 _027_ VGND VGND VPWR VPWR net49 sky130_fd_sc_hd__clkbuf_1
XTAP_TAPCELL_ROW_27_126 VGND VPWR sky130_fd_sc_hd__tapvpwrvgnd_1
Xoutput20 net20 VGND VGND VPWR VPWR prod[12] sky130_fd_sc_hd__clkbuf_4
XTAP_TAPCELL_ROW_18_104 VGND VPWR sky130_fd_sc_hd__tapvpwrvgnd_1
X_577_ _254_ net14 _294_ VGND VGND VPWR VPWR _012_ sky130_fd_sc_hd__and3_1
XFILLER_0_5_106 VGND VGND VPWR VPWR sky130_fd_sc_hd__decap_6
Xoutput31 net31 VGND VGND VPWR VPWR prod[8] sky130_fd_sc_hd__buf_2
XFILLER_0_27_83 VGND VGND VPWR VPWR sky130_fd_sc_hd__fill_1
XTAP_TAPCELL_ROW_24_118 VGND VPWR sky130_fd_sc_hd__tapvpwrvgnd_1
XFILLER_0_4_161 VGND VGND VPWR VPWR sky130_fd_sc_hd__fill_2
X_431_ _193_ _194_ VGND VGND VPWR VPWR _195_ sky130_fd_sc_hd__and2_1
XPHY_EDGE_ROW_21_Left_49 VGND VGND VPWR VPWR sky130_fd_sc_hd__decap_3
X_362_ _080_ _125_ _118_ VGND VGND VPWR VPWR _127_ sky130_fd_sc_hd__nand3_1
Xrebuffer8 _264_ VGND VGND VPWR VPWR net40 sky130_fd_sc_hd__clkbuf_1
X_500_ net10 VGND VGND VPWR VPWR _247_ sky130_fd_sc_hd__buf_6
XFILLER_0_13_85 VGND VGND VPWR VPWR sky130_fd_sc_hd__fill_1
XTAP_TAPCELL_ROW_12_88 VGND VPWR sky130_fd_sc_hd__tapvpwrvgnd_1
X_629_ _059_ _062_ _063_ VGND VGND VPWR VPWR _064_ sky130_fd_sc_hd__and3_1
XTAP_TAPCELL_ROW_20_110 VGND VPWR sky130_fd_sc_hd__tapvpwrvgnd_1
XTAP_TAPCELL_ROW_8_78 VGND VPWR sky130_fd_sc_hd__tapvpwrvgnd_1
X_414_ _170_ _178_ VGND VGND VPWR VPWR _179_ sky130_fd_sc_hd__xor2_1
X_345_ _093_ _109_ VGND VGND VPWR VPWR _110_ sky130_fd_sc_hd__xnor2_1
XPHY_EDGE_ROW_21_Right_21 VGND VGND VPWR VPWR sky130_fd_sc_hd__decap_3
XPHY_EDGE_ROW_12_Right_12 VGND VGND VPWR VPWR sky130_fd_sc_hd__decap_3
XFILLER_0_4_83 VGND VGND VPWR VPWR sky130_fd_sc_hd__fill_1
X_328_ _053_ _070_ _069_ VGND VGND VPWR VPWR _093_ sky130_fd_sc_hd__a21oi_2
XFILLER_0_9_17 VGND VGND VPWR VPWR sky130_fd_sc_hd__fill_2
XPHY_EDGE_ROW_24_Left_52 VGND VGND VPWR VPWR sky130_fd_sc_hd__decap_3
XFILLER_0_19_84 VGND VPWR VPWR VGND sky130_ef_sc_hd__decap_12
XFILLER_0_10_97 VGND VPWR VPWR VGND sky130_ef_sc_hd__decap_12
XFILLER_0_25_129 VGND VGND VPWR VPWR sky130_fd_sc_hd__decap_6
XFILLER_0_21_74 VGND VGND VPWR VPWR sky130_fd_sc_hd__decap_4
XFILLER_0_27_3 VGND VPWR VPWR VGND sky130_ef_sc_hd__decap_12
XFILLER_0_1_95 VGND VGND VPWR VPWR sky130_fd_sc_hd__fill_2
XFILLER_0_16_41 VGND VPWR VPWR VGND sky130_ef_sc_hd__decap_12
Xrebuffer18 _313_ VGND VGND VPWR VPWR net50 sky130_fd_sc_hd__dlymetal6s2s_1
XFILLER_0_6_29 VGND VGND VPWR VPWR sky130_fd_sc_hd__fill_1
X_593_ _272_ _270_ _313_ VGND VGND VPWR VPWR _028_ sky130_fd_sc_hd__and3_1
XTAP_TAPCELL_ROW_27_127 VGND VPWR sky130_fd_sc_hd__tapvpwrvgnd_1
XFILLER_0_12_132 VGND VGND VPWR VPWR sky130_fd_sc_hd__decap_8
XPHY_EDGE_ROW_6_Right_6 VGND VGND VPWR VPWR sky130_fd_sc_hd__decap_3
Xoutput21 net21 VGND VGND VPWR VPWR prod[13] sky130_fd_sc_hd__clkbuf_4
XTAP_TAPCELL_ROW_18_105 VGND VPWR sky130_fd_sc_hd__tapvpwrvgnd_1
Xoutput32 net32 VGND VGND VPWR VPWR prod[9] sky130_fd_sc_hd__clkbuf_4
X_576_ net42 net13 VGND VGND VPWR VPWR _011_ sky130_fd_sc_hd__nand2_2
XFILLER_0_5_118 VGND VGND VPWR VPWR sky130_fd_sc_hd__decap_8
XTAP_TAPCELL_ROW_24_119 VGND VPWR sky130_fd_sc_hd__tapvpwrvgnd_1
X_430_ _158_ _192_ VGND VGND VPWR VPWR _194_ sky130_fd_sc_hd__nand2_1
X_361_ _080_ _118_ _125_ VGND VGND VPWR VPWR _126_ sky130_fd_sc_hd__a21o_1
XFILLER_0_2_9 VGND VPWR VPWR VGND sky130_ef_sc_hd__decap_12
Xrebuffer9 _257_ VGND VGND VPWR VPWR net41 sky130_fd_sc_hd__clkbuf_1
X_628_ _019_ _299_ _300_ VGND VGND VPWR VPWR _063_ sky130_fd_sc_hd__a21oi_1
X_559_ net4 VGND VGND VPWR VPWR _308_ sky130_fd_sc_hd__inv_2
XTAP_TAPCELL_ROW_12_89 VGND VPWR sky130_fd_sc_hd__tapvpwrvgnd_1
X_413_ _171_ _177_ VGND VGND VPWR VPWR _178_ sky130_fd_sc_hd__xor2_1
XTAP_TAPCELL_ROW_8_79 VGND VPWR sky130_fd_sc_hd__tapvpwrvgnd_1
X_344_ _107_ _108_ VGND VGND VPWR VPWR _109_ sky130_fd_sc_hd__nor2_1
XFILLER_0_24_85 VGND VGND VPWR VPWR sky130_fd_sc_hd__fill_2
XFILLER_0_24_41 VGND VPWR VPWR VGND sky130_ef_sc_hd__decap_12
XFILLER_0_19_96 VGND VGND VPWR VPWR sky130_fd_sc_hd__fill_2
XFILLER_0_19_41 VGND VGND VPWR VPWR sky130_fd_sc_hd__decap_6
XFILLER_0_19_30 VGND VGND VPWR VPWR sky130_fd_sc_hd__decap_8
X_327_ _090_ _091_ VGND VGND VPWR VPWR _092_ sky130_fd_sc_hd__nand2_1
XFILLER_0_10_32 VGND VGND VPWR VPWR sky130_fd_sc_hd__decap_4
XFILLER_0_24_141 VGND VPWR VPWR VGND sky130_ef_sc_hd__decap_12
XFILLER_0_21_111 VGND VGND VPWR VPWR sky130_fd_sc_hd__fill_1
X_592_ _306_ _003_ _001_ VGND VGND VPWR VPWR _027_ sky130_fd_sc_hd__a21bo_1
XFILLER_0_16_53 VGND VGND VPWR VPWR sky130_fd_sc_hd__decap_4
Xrebuffer19 _308_ VGND VGND VPWR VPWR net51 sky130_fd_sc_hd__dlygate4sd1_1
Xoutput22 net22 VGND VGND VPWR VPWR prod[14] sky130_fd_sc_hd__clkbuf_4
XTAP_TAPCELL_ROW_27_128 VGND VPWR sky130_fd_sc_hd__tapvpwrvgnd_1
X_575_ _253_ net15 VGND VGND VPWR VPWR _010_ sky130_fd_sc_hd__and2_1
XFILLER_0_27_85 VGND VPWR VPWR VGND sky130_ef_sc_hd__decap_12
XFILLER_0_27_41 VGND VPWR VPWR VGND sky130_ef_sc_hd__decap_12
XFILLER_0_11_7 VGND VGND VPWR VPWR sky130_fd_sc_hd__fill_1
X_360_ _123_ _124_ VGND VGND VPWR VPWR _125_ sky130_fd_sc_hd__nor2_1
XFILLER_0_4_141 VGND VPWR VPWR VGND sky130_ef_sc_hd__decap_12
X_489_ _292_ _007_ VGND VGND VPWR VPWR net28 sky130_fd_sc_hd__xnor2_1
X_558_ _284_ _285_ _273_ VGND VGND VPWR VPWR _307_ sky130_fd_sc_hd__a21boi_1
X_627_ _060_ _061_ _019_ VGND VGND VPWR VPWR _062_ sky130_fd_sc_hd__or3_4
X_412_ _175_ _176_ VGND VGND VPWR VPWR _177_ sky130_fd_sc_hd__and2_1
X_343_ _094_ _096_ _106_ VGND VGND VPWR VPWR _108_ sky130_fd_sc_hd__and3_1
XFILLER_0_24_64 VGND VGND VPWR VPWR sky130_fd_sc_hd__decap_3
XFILLER_0_24_53 VGND VGND VPWR VPWR sky130_fd_sc_hd__decap_6
XFILLER_0_4_85 VGND VPWR VPWR VGND sky130_ef_sc_hd__decap_12
X_326_ _088_ _089_ VGND VGND VPWR VPWR _091_ sky130_fd_sc_hd__nand2_1
XFILLER_0_19_139 VGND VGND VPWR VPWR sky130_fd_sc_hd__decap_4
XFILLER_0_25_109 VGND VGND VPWR VPWR sky130_fd_sc_hd__decap_3
XFILLER_0_21_54 VGND VGND VPWR VPWR sky130_fd_sc_hd__fill_2
XFILLER_0_21_32 VGND VGND VPWR VPWR sky130_fd_sc_hd__fill_1
XFILLER_0_18_161 VGND VGND VPWR VPWR sky130_fd_sc_hd__fill_2
XFILLER_0_24_153 VGND VGND VPWR VPWR sky130_fd_sc_hd__decap_4
XFILLER_0_21_98 VGND VGND VPWR VPWR sky130_fd_sc_hd__decap_6
X_591_ _024_ _025_ VGND VGND VPWR VPWR _026_ sky130_fd_sc_hd__or2_1
Xoutput23 net23 VGND VGND VPWR VPWR prod[15] sky130_fd_sc_hd__buf_6
XTAP_TAPCELL_ROW_27_129 VGND VPWR sky130_fd_sc_hd__tapvpwrvgnd_1
XFILLER_0_7_150 VGND VPWR VPWR VGND sky130_ef_sc_hd__decap_12
XFILLER_0_27_97 VGND VGND VPWR VPWR sky130_fd_sc_hd__decap_3
XFILLER_0_27_53 VGND VGND VPWR VPWR sky130_fd_sc_hd__decap_3
X_643_ _010_ net16 _254_ VGND VGND VPWR VPWR _078_ sky130_fd_sc_hd__and3b_1
X_574_ _293_ _007_ _008_ VGND VGND VPWR VPWR _009_ sky130_fd_sc_hd__o21bai_1
XFILLER_0_4_153 VGND VGND VPWR VPWR sky130_fd_sc_hd__decap_8
XFILLER_0_7_74 VGND VGND VPWR VPWR sky130_fd_sc_hd__fill_1
X_488_ _236_ _246_ _248_ _249_ VGND VGND VPWR VPWR net23 sky130_fd_sc_hd__a211o_1
X_626_ net8 VGND VGND VPWR VPWR _061_ sky130_fd_sc_hd__inv_2
X_557_ _280_ _304_ _305_ VGND VGND VPWR VPWR _306_ sky130_fd_sc_hd__a21o_1
XFILLER_0_13_99 VGND VGND VPWR VPWR sky130_fd_sc_hd__fill_2
XFILLER_0_1_123 VGND VPWR VPWR VGND sky130_ef_sc_hd__decap_12
X_411_ _143_ _146_ _174_ VGND VGND VPWR VPWR _176_ sky130_fd_sc_hd__nand3_1
X_342_ _094_ _096_ _106_ VGND VGND VPWR VPWR _107_ sky130_fd_sc_hd__a21oi_1
X_609_ net51 _042_ _011_ _043_ VGND VGND VPWR VPWR _044_ sky130_fd_sc_hd__o31a_1
XFILLER_0_4_97 VGND VGND VPWR VPWR sky130_fd_sc_hd__decap_3
XFILLER_0_19_54 VGND VGND VPWR VPWR sky130_fd_sc_hd__fill_2
X_325_ _088_ _089_ VGND VGND VPWR VPWR _090_ sky130_fd_sc_hd__or2_1
XTAP_TAPCELL_ROW_0_60 VGND VPWR sky130_fd_sc_hd__tapvpwrvgnd_1
XFILLER_0_10_45 VGND VPWR VPWR VGND sky130_ef_sc_hd__decap_12
XFILLER_0_27_162 VGND VGND VPWR VPWR sky130_fd_sc_hd__fill_1
XFILLER_0_1_87 VGND VGND VPWR VPWR sky130_fd_sc_hd__fill_1
XFILLER_0_15_121 VGND VGND VPWR VPWR sky130_fd_sc_hd__decap_3
X_590_ _021_ _023_ VGND VGND VPWR VPWR _025_ sky130_fd_sc_hd__nor2_1
XFILLER_0_21_113 VGND VPWR VPWR VGND sky130_ef_sc_hd__decap_12
XFILLER_0_16_88 VGND VPWR VPWR VGND sky130_ef_sc_hd__decap_12
XFILLER_0_16_77 VGND VGND VPWR VPWR sky130_fd_sc_hd__fill_1
XFILLER_0_25_3 VGND VPWR VPWR VGND sky130_ef_sc_hd__decap_12
XFILLER_0_7_162 VGND VGND VPWR VPWR sky130_fd_sc_hd__fill_1
Xoutput24 net24 VGND VGND VPWR VPWR prod[1] sky130_fd_sc_hd__clkbuf_4
XPHY_EDGE_ROW_19_Right_19 VGND VGND VPWR VPWR sky130_fd_sc_hd__decap_3
X_642_ net44 net15 VGND VGND VPWR VPWR _077_ sky130_fd_sc_hd__nand2_1
X_573_ _297_ _006_ VGND VGND VPWR VPWR _008_ sky130_fd_sc_hd__nor2_1
XFILLER_0_27_65 VGND VGND VPWR VPWR sky130_fd_sc_hd__fill_1
XPHY_EDGE_ROW_15_Left_43 VGND VGND VPWR VPWR sky130_fd_sc_hd__decap_3
X_625_ _247_ VGND VGND VPWR VPWR _060_ sky130_fd_sc_hd__inv_2
X_487_ _241_ _244_ VGND VGND VPWR VPWR _249_ sky130_fd_sc_hd__or2_1
X_556_ _283_ _286_ VGND VGND VPWR VPWR _305_ sky130_fd_sc_hd__nor2_1
XFILLER_0_1_135 VGND VPWR VPWR VGND sky130_ef_sc_hd__decap_12
X_410_ _143_ _146_ _174_ VGND VGND VPWR VPWR _175_ sky130_fd_sc_hd__a21o_1
X_341_ _104_ _105_ VGND VGND VPWR VPWR _106_ sky130_fd_sc_hd__or2_1
XPHY_EDGE_ROW_0_Left_28 VGND VGND VPWR VPWR sky130_fd_sc_hd__decap_3
XFILLER_0_24_77 VGND VGND VPWR VPWR sky130_fd_sc_hd__decap_6
X_608_ net43 net14 net13 _272_ VGND VGND VPWR VPWR _043_ sky130_fd_sc_hd__a22o_1
X_539_ _280_ _287_ VGND VGND VPWR VPWR _288_ sky130_fd_sc_hd__xnor2_1
X_324_ _266_ _265_ VGND VGND VPWR VPWR _089_ sky130_fd_sc_hd__nand2_1
XTAP_TAPCELL_ROW_13_91 VGND VPWR sky130_fd_sc_hd__tapvpwrvgnd_1
XFILLER_0_10_57 VGND VGND VPWR VPWR sky130_fd_sc_hd__decap_3
XTAP_TAPCELL_ROW_9_81 VGND VPWR sky130_fd_sc_hd__tapvpwrvgnd_1
XFILLER_0_18_141 VGND VPWR VPWR VGND sky130_ef_sc_hd__decap_12
XFILLER_0_18_130 VGND VGND VPWR VPWR sky130_fd_sc_hd__decap_4
XPHY_EDGE_ROW_3_Left_31 VGND VGND VPWR VPWR sky130_fd_sc_hd__decap_3
XFILLER_0_24_100 VGND VPWR VPWR VGND sky130_ef_sc_hd__decap_12
XFILLER_0_15_111 VGND VGND VPWR VPWR sky130_fd_sc_hd__fill_1
XFILLER_0_21_125 VGND VPWR VPWR VGND sky130_ef_sc_hd__decap_12
XFILLER_0_18_3 VGND VGND VPWR VPWR sky130_fd_sc_hd__decap_3
XFILLER_0_7_130 VGND VGND VPWR VPWR sky130_fd_sc_hd__decap_8
X_641_ _040_ _047_ VGND VGND VPWR VPWR _076_ sky130_fd_sc_hd__and2b_1
Xoutput25 net25 VGND VGND VPWR VPWR prod[2] sky130_fd_sc_hd__clkbuf_4
X_572_ _297_ _006_ VGND VGND VPWR VPWR _007_ sky130_fd_sc_hd__xnor2_1
XFILLER_0_7_54 VGND VGND VPWR VPWR sky130_fd_sc_hd__fill_2
X_486_ _228_ _238_ _225_ VGND VGND VPWR VPWR _248_ sky130_fd_sc_hd__a21bo_1
XFILLER_0_13_57 VGND VGND VPWR VPWR sky130_fd_sc_hd__decap_8
XFILLER_0_13_24 VGND VGND VPWR VPWR sky130_fd_sc_hd__fill_2
X_555_ _283_ _286_ VGND VGND VPWR VPWR _304_ sky130_fd_sc_hd__nand2_1
XFILLER_0_1_147 VGND VPWR VPWR VGND sky130_ef_sc_hd__decap_12
X_624_ _247_ net7 net8 _255_ VGND VGND VPWR VPWR _059_ sky130_fd_sc_hd__a22o_1
X_607_ net14 VGND VGND VPWR VPWR _042_ sky130_fd_sc_hd__inv_2
X_340_ _100_ _103_ VGND VGND VPWR VPWR _105_ sky130_fd_sc_hd__and2_1
X_538_ _283_ net48 VGND VGND VPWR VPWR _287_ sky130_fd_sc_hd__xnor2_1
X_469_ _214_ _217_ _231_ VGND VGND VPWR VPWR _232_ sky130_fd_sc_hd__o21ai_1
XTAP_TAPCELL_ROW_13_92 VGND VPWR sky130_fd_sc_hd__tapvpwrvgnd_1
X_323_ _086_ _087_ VGND VGND VPWR VPWR _088_ sky130_fd_sc_hd__nand2_1
XFILLER_0_27_131 VGND VGND VPWR VPWR sky130_fd_sc_hd__decap_8
XFILLER_0_19_109 VGND VGND VPWR VPWR sky130_fd_sc_hd__decap_3
XTAP_TAPCELL_ROW_9_82 VGND VPWR sky130_fd_sc_hd__tapvpwrvgnd_1
XFILLER_0_18_153 VGND VGND VPWR VPWR sky130_fd_sc_hd__decap_8
XFILLER_0_24_112 VGND VPWR VPWR VGND sky130_ef_sc_hd__decap_12
XFILLER_0_21_57 VGND VGND VPWR VPWR sky130_fd_sc_hd__decap_4
XFILLER_0_21_46 VGND VGND VPWR VPWR sky130_fd_sc_hd__decap_8
XFILLER_0_21_137 VGND VPWR VPWR VGND sky130_ef_sc_hd__decap_12
XFILLER_0_16_57 VGND VGND VPWR VPWR sky130_fd_sc_hd__fill_1
XFILLER_0_12_115 VGND VGND VPWR VPWR sky130_fd_sc_hd__decap_3
XFILLER_0_12_104 VGND VGND VPWR VPWR sky130_fd_sc_hd__decap_8
XPHY_EDGE_ROW_1_Right_1 VGND VGND VPWR VPWR sky130_fd_sc_hd__decap_3
X_571_ _298_ _005_ VGND VGND VPWR VPWR _006_ sky130_fd_sc_hd__xnor2_1
Xoutput26 net26 VGND VGND VPWR VPWR prod[3] sky130_fd_sc_hd__clkbuf_4
XFILLER_0_7_120 VGND VGND VPWR VPWR sky130_fd_sc_hd__decap_3
X_640_ _036_ _073_ _074_ VGND VGND VPWR VPWR _075_ sky130_fd_sc_hd__a21o_1
X_485_ _236_ _246_ VGND VGND VPWR VPWR net22 sky130_fd_sc_hd__xor2_1
XFILLER_0_13_36 VGND VPWR VPWR VGND sky130_ef_sc_hd__decap_12
XFILLER_0_1_159 VGND VGND VPWR VPWR sky130_fd_sc_hd__decap_4
XFILLER_0_1_104 VGND VGND VPWR VPWR sky130_fd_sc_hd__fill_2
X_554_ _299_ _300_ _302_ VGND VGND VPWR VPWR _303_ sky130_fd_sc_hd__o21ai_1
X_623_ _056_ _057_ VGND VGND VPWR VPWR _058_ sky130_fd_sc_hd__or2_1
X_468_ _223_ _230_ VGND VGND VPWR VPWR _231_ sky130_fd_sc_hd__xnor2_1
X_399_ _127_ _129_ _163_ VGND VGND VPWR VPWR _164_ sky130_fd_sc_hd__a21o_1
X_606_ _011_ _294_ _295_ VGND VGND VPWR VPWR _041_ sky130_fd_sc_hd__a21oi_1
X_537_ net47 _285_ VGND VGND VPWR VPWR _286_ sky130_fd_sc_hd__xnor2_1
X_322_ _076_ _049_ _085_ VGND VGND VPWR VPWR _087_ sky130_fd_sc_hd__or3_1
XFILLER_0_19_57 VGND VGND VPWR VPWR sky130_fd_sc_hd__decap_6
XFILLER_0_10_26 VGND VGND VPWR VPWR sky130_fd_sc_hd__fill_2
XFILLER_0_24_124 VGND VPWR VPWR VGND sky130_ef_sc_hd__decap_12
XFILLER_0_21_36 VGND VGND VPWR VPWR sky130_fd_sc_hd__decap_6
XFILLER_0_15_113 VGND VGND VPWR VPWR sky130_fd_sc_hd__decap_8
XFILLER_0_1_57 VGND VGND VPWR VPWR sky130_fd_sc_hd__decap_6
XFILLER_0_21_149 VGND VPWR VPWR VGND sky130_ef_sc_hd__decap_12
XTAP_TAPCELL_ROW_10_83 VGND VPWR sky130_fd_sc_hd__tapvpwrvgnd_1
XTAP_TAPCELL_ROW_6_73 VGND VPWR sky130_fd_sc_hd__tapvpwrvgnd_1
Xoutput27 net27 VGND VGND VPWR VPWR prod[4] sky130_fd_sc_hd__clkbuf_4
X_570_ _303_ _004_ VGND VGND VPWR VPWR _005_ sky130_fd_sc_hd__xor2_1
XFILLER_0_27_57 VGND VGND VPWR VPWR sky130_fd_sc_hd__decap_8
XPHY_EDGE_ROW_24_Right_24 VGND VGND VPWR VPWR sky130_fd_sc_hd__decap_3
XFILLER_0_23_3 VGND VGND VPWR VPWR sky130_fd_sc_hd__decap_8
XPHY_EDGE_ROW_15_Right_15 VGND VGND VPWR VPWR sky130_fd_sc_hd__decap_3
XFILLER_0_4_113 VGND VPWR VPWR VGND sky130_ef_sc_hd__decap_12
XFILLER_0_7_89 VGND VPWR VPWR VGND sky130_ef_sc_hd__decap_12
X_484_ _244_ _245_ VGND VGND VPWR VPWR _246_ sky130_fd_sc_hd__nor2_1
XFILLER_0_13_48 VGND VGND VPWR VPWR sky130_fd_sc_hd__decap_8
XFILLER_0_13_15 VGND VGND VPWR VPWR sky130_fd_sc_hd__decap_6
X_553_ net35 _301_ _266_ net38 VGND VGND VPWR VPWR _302_ sky130_fd_sc_hd__a22o_1
X_622_ _270_ net6 _023_ VGND VGND VPWR VPWR _057_ sky130_fd_sc_hd__and3_1
XPHY_EDGE_ROW_19_Left_47 VGND VGND VPWR VPWR sky130_fd_sc_hd__decap_3
X_467_ _228_ _229_ VGND VGND VPWR VPWR _230_ sky130_fd_sc_hd__or2_1
X_398_ _161_ _162_ VGND VGND VPWR VPWR _163_ sky130_fd_sc_hd__nand2_1
X_605_ _254_ _037_ _010_ _039_ VGND VGND VPWR VPWR _040_ sky130_fd_sc_hd__a31o_1
XFILLER_0_4_79 VGND VGND VPWR VPWR sky130_fd_sc_hd__decap_4
X_536_ _247_ _272_ _258_ VGND VGND VPWR VPWR _285_ sky130_fd_sc_hd__and3_1
XFILLER_0_19_47 VGND VGND VPWR VPWR sky130_fd_sc_hd__fill_1
X_321_ _076_ _049_ _085_ VGND VGND VPWR VPWR _086_ sky130_fd_sc_hd__o21ai_2
XFILLER_0_10_16 VGND VGND VPWR VPWR sky130_fd_sc_hd__fill_1
X_519_ net2 net12 VGND VGND VPWR VPWR _268_ sky130_fd_sc_hd__nand2_1
XFILLER_0_24_136 VGND VGND VPWR VPWR sky130_fd_sc_hd__decap_4
XFILLER_0_11_81 VGND VGND VPWR VPWR sky130_fd_sc_hd__decap_6
XPHY_EDGE_ROW_7_Left_35 VGND VGND VPWR VPWR sky130_fd_sc_hd__decap_3
XTAP_TAPCELL_ROW_10_84 VGND VPWR sky130_fd_sc_hd__tapvpwrvgnd_1
XFILLER_0_16_26 VGND VGND VPWR VPWR sky130_fd_sc_hd__fill_2
XTAP_TAPCELL_ROW_6_74 VGND VPWR sky130_fd_sc_hd__tapvpwrvgnd_1
Xoutput17 net17 VGND VGND VPWR VPWR prod[0] sky130_fd_sc_hd__clkbuf_4
Xoutput28 net28 VGND VGND VPWR VPWR prod[5] sky130_fd_sc_hd__clkbuf_4
XTAP_TAPCELL_ROW_26_123 VGND VPWR sky130_fd_sc_hd__tapvpwrvgnd_1
XTAP_TAPCELL_ROW_17_101 VGND VPWR sky130_fd_sc_hd__tapvpwrvgnd_1
XFILLER_0_4_125 VGND VPWR VPWR VGND sky130_ef_sc_hd__decap_12
XFILLER_0_7_79 VGND VGND VPWR VPWR sky130_fd_sc_hd__fill_1
X_483_ _220_ _234_ _243_ VGND VGND VPWR VPWR _245_ sky130_fd_sc_hd__a21oi_1
X_552_ net6 VGND VGND VPWR VPWR _301_ sky130_fd_sc_hd__buf_2
X_621_ _261_ _301_ _266_ _270_ VGND VGND VPWR VPWR _056_ sky130_fd_sc_hd__a22oi_1
XFILLER_0_0_161 VGND VGND VPWR VPWR sky130_fd_sc_hd__fill_2
X_466_ _224_ _225_ _226_ VGND VGND VPWR VPWR _229_ sky130_fd_sc_hd__a21oi_1
XFILLER_0_24_15 VGND VPWR VPWR VGND sky130_ef_sc_hd__decap_12
X_397_ _272_ _037_ _123_ VGND VGND VPWR VPWR _162_ sky130_fd_sc_hd__nand3_1
X_604_ _253_ net16 _038_ _254_ VGND VGND VPWR VPWR _039_ sky130_fd_sc_hd__a22oi_1
XPHY_EDGE_ROW_20_Left_48 VGND VGND VPWR VPWR sky130_fd_sc_hd__decap_3
X_535_ _273_ _274_ _275_ VGND VGND VPWR VPWR _284_ sky130_fd_sc_hd__and3_1
XFILLER_0_5_3 VGND VGND VPWR VPWR sky130_fd_sc_hd__decap_4
XFILLER_0_14_81 VGND VGND VPWR VPWR sky130_fd_sc_hd__decap_3
XFILLER_0_4_36 VGND VPWR VPWR VGND sky130_ef_sc_hd__decap_12
X_320_ _083_ _084_ VGND VGND VPWR VPWR _085_ sky130_fd_sc_hd__and2_1
XFILLER_0_27_156 VGND VGND VPWR VPWR sky130_fd_sc_hd__decap_6
X_449_ _101_ net14 _154_ VGND VGND VPWR VPWR _212_ sky130_fd_sc_hd__and3_1
X_518_ net1 _261_ VGND VGND VPWR VPWR _267_ sky130_fd_sc_hd__nand2_1
XPHY_EDGE_ROW_23_Left_51 VGND VGND VPWR VPWR sky130_fd_sc_hd__decap_3
XFILLER_0_1_15 VGND VGND VPWR VPWR sky130_fd_sc_hd__decap_4
XFILLER_0_15_137 VGND VPWR VPWR VGND sky130_ef_sc_hd__decap_12
XTAP_TAPCELL_ROW_10_85 VGND VPWR sky130_fd_sc_hd__tapvpwrvgnd_1
XFILLER_0_21_107 VGND VGND VPWR VPWR sky130_fd_sc_hd__decap_4
XTAP_TAPCELL_ROW_6_75 VGND VPWR sky130_fd_sc_hd__tapvpwrvgnd_1
XFILLER_0_22_92 VGND VGND VPWR VPWR sky130_fd_sc_hd__fill_1
Xoutput18 net18 VGND VGND VPWR VPWR prod[10] sky130_fd_sc_hd__clkbuf_4
XFILLER_0_11_162 VGND VGND VPWR VPWR sky130_fd_sc_hd__fill_1
Xoutput29 net29 VGND VGND VPWR VPWR prod[6] sky130_fd_sc_hd__buf_2
XFILLER_0_7_101 VGND VGND VPWR VPWR sky130_fd_sc_hd__decap_8
XTAP_TAPCELL_ROW_26_124 VGND VPWR sky130_fd_sc_hd__tapvpwrvgnd_1
XFILLER_0_27_15 VGND VPWR VPWR VGND sky130_ef_sc_hd__decap_12
XTAP_TAPCELL_ROW_17_102 VGND VPWR sky130_fd_sc_hd__tapvpwrvgnd_1
XFILLER_0_4_137 VGND VGND VPWR VPWR sky130_fd_sc_hd__decap_3
XTAP_TAPCELL_ROW_23_116 VGND VPWR sky130_fd_sc_hd__tapvpwrvgnd_1
X_620_ _030_ _027_ VGND VGND VPWR VPWR _055_ sky130_fd_sc_hd__and2b_1
X_551_ net38 net6 VGND VGND VPWR VPWR _300_ sky130_fd_sc_hd__nand2_1
XPHY_EDGE_ROW_5_Right_5 VGND VGND VPWR VPWR sky130_fd_sc_hd__decap_3
X_482_ _220_ _234_ _243_ VGND VGND VPWR VPWR _244_ sky130_fd_sc_hd__and3_1
XTAP_TAPCELL_ROW_20_108 VGND VPWR sky130_fd_sc_hd__tapvpwrvgnd_1
X_465_ _224_ _225_ _226_ VGND VGND VPWR VPWR _228_ sky130_fd_sc_hd__and3_1
XFILLER_0_24_27 VGND VGND VPWR VPWR sky130_fd_sc_hd__fill_1
X_396_ _272_ _037_ _077_ _123_ VGND VGND VPWR VPWR _161_ sky130_fd_sc_hd__a31o_1
X_603_ net15 VGND VGND VPWR VPWR _038_ sky130_fd_sc_hd__buf_2
X_534_ _281_ _282_ VGND VGND VPWR VPWR _283_ sky130_fd_sc_hd__xor2_2
XFILLER_0_4_48 VGND VGND VPWR VPWR sky130_fd_sc_hd__decap_3
XFILLER_0_27_113 VGND VGND VPWR VPWR sky130_fd_sc_hd__decap_6
X_448_ _209_ _210_ VGND VGND VPWR VPWR _211_ sky130_fd_sc_hd__xor2_1
X_379_ _141_ _142_ _137_ VGND VGND VPWR VPWR _144_ sky130_fd_sc_hd__o21ai_1
X_517_ net5 VGND VGND VPWR VPWR _266_ sky130_fd_sc_hd__buf_2
XFILLER_0_5_91 VGND VGND VPWR VPWR sky130_fd_sc_hd__decap_4
XFILLER_0_21_28 VGND VGND VPWR VPWR sky130_fd_sc_hd__decap_4
XFILLER_0_15_149 VGND VGND VPWR VPWR sky130_fd_sc_hd__decap_8
XFILLER_0_22_71 VGND VPWR VPWR VGND sky130_ef_sc_hd__decap_12
XTAP_TAPCELL_ROW_26_125 VGND VPWR sky130_fd_sc_hd__tapvpwrvgnd_1
Xoutput19 net19 VGND VGND VPWR VPWR prod[11] sky130_fd_sc_hd__buf_2
XFILLER_0_27_27 VGND VGND VPWR VPWR sky130_fd_sc_hd__fill_1
XTAP_TAPCELL_ROW_23_117 VGND VPWR sky130_fd_sc_hd__tapvpwrvgnd_1
X_481_ _241_ _242_ VGND VGND VPWR VPWR _243_ sky130_fd_sc_hd__nor2_1
XPHY_EDGE_ROW_20_Right_20 VGND VGND VPWR VPWR sky130_fd_sc_hd__decap_3
XPHY_EDGE_ROW_11_Right_11 VGND VGND VPWR VPWR sky130_fd_sc_hd__decap_3
XTAP_TAPCELL_ROW_3_66 VGND VPWR sky130_fd_sc_hd__tapvpwrvgnd_1
X_550_ net34 net5 VGND VGND VPWR VPWR _299_ sky130_fd_sc_hd__nand2_1
XTAP_TAPCELL_ROW_20_109 VGND VPWR sky130_fd_sc_hd__tapvpwrvgnd_1
XFILLER_0_0_141 VGND VPWR VPWR VGND sky130_ef_sc_hd__decap_12
X_464_ _097_ _038_ _210_ _184_ VGND VGND VPWR VPWR _226_ sky130_fd_sc_hd__a31o_1
X_602_ net16 VGND VGND VPWR VPWR _037_ sky130_fd_sc_hd__buf_2
X_533_ _262_ _268_ VGND VGND VPWR VPWR _282_ sky130_fd_sc_hd__nor2_1
XFILLER_0_8_80 VGND VGND VPWR VPWR sky130_fd_sc_hd__decap_4
X_395_ _158_ _159_ VGND VGND VPWR VPWR _160_ sky130_fd_sc_hd__nand2_1
XFILLER_0_4_27 VGND VGND VPWR VPWR sky130_fd_sc_hd__fill_1