*SPEF "ieee 1481-1999"
*DESIGN "pes_vedic_mul"
*DATE "11:11:11 Fri 11 11, 1111"
*VENDOR "OpenRCX"
*PROGRAM "Parallel Extraction"
*VERSION "1.0"
*DESIGN_FLOW "NAME_SCOPE LOCAL" "PIN_CAP NONE"
*DIVIDER /
*DELIMITER :
*BUS_DELIMITER []
*T_UNIT 1 NS
*C_UNIT 1 PF
*R_UNIT 1 OHM
*L_UNIT 1 HENRY

*NAME_MAP
*3 a[0]
*4 a[1]
*5 a[2]
*6 a[3]
*7 a[4]
*8 a[5]
*9 a[6]
*10 a[7]
*11 b[0]
*12 b[1]
*13 b[2]
*14 b[3]
*15 b[4]
*16 b[5]
*17 b[6]
*18 b[7]
*19 prod[0]
*20 prod[10]
*21 prod[11]
*22 prod[12]
*23 prod[13]
*24 prod[14]
*25 prod[15]
*26 prod[1]
*27 prod[2]
*28 prod[3]
*29 prod[4]
*30 prod[5]
*31 prod[6]
*32 prod[7]
*33 prod[8]
*34 prod[9]
*35 _000_
*36 _001_
*37 _002_
*38 _003_
*39 _004_
*40 _005_
*41 _006_
*42 _007_
*43 _008_
*44 _009_
*45 _010_
*46 _011_
*47 _012_
*48 _013_
*49 _014_
*50 _015_
*51 _016_
*52 _017_
*53 _018_
*54 _019_
*55 _020_
*56 _021_
*57 _022_
*58 _023_
*59 _024_
*60 _025_
*61 _026_
*62 _027_
*63 _028_
*64 _029_
*65 _030_
*66 _031_
*67 _032_
*68 _033_
*69 _034_
*70 _035_
*71 _036_
*72 _037_
*73 _038_
*74 _039_
*75 _040_
*76 _041_
*77 _042_
*78 _043_
*79 _044_
*80 _045_
*81 _046_
*82 _047_
*83 _048_
*84 _049_
*85 _050_
*86 _051_
*87 _052_
*88 _053_
*89 _054_
*90 _055_
*91 _056_
*92 _057_
*93 _058_
*94 _059_
*95 _060_
*96 _061_
*97 _062_
*98 _063_
*99 _064_
*100 _065_
*101 _066_
*102 _067_
*103 _068_
*104 _069_
*105 _070_
*106 _071_
*107 _072_
*108 _073_
*109 _074_
*110 _075_
*111 _076_
*112 _077_
*113 _078_
*114 _079_
*115 _080_
*116 _081_
*117 _082_
*118 _083_
*119 _084_
*120 _085_
*121 _086_
*122 _087_
*123 _088_
*124 _089_
*125 _090_
*126 _091_
*127 _092_
*128 _093_
*129 _094_
*130 _095_
*131 _096_
*132 _097_
*133 _098_
*134 _099_
*135 _100_
*136 _101_
*137 _102_
*138 _103_
*139 _104_
*140 _105_
*141 _106_
*142 _107_
*143 _108_
*144 _109_
*145 _110_
*146 _111_
*147 _112_
*148 _113_
*149 _114_
*150 _115_
*151 _116_
*152 _117_
*153 _118_
*154 _119_
*155 _120_
*156 _121_
*157 _122_
*158 _123_
*159 _124_
*160 _125_
*161 _126_
*162 _127_
*163 _128_
*164 _129_
*165 _130_
*166 _131_
*167 _132_
*168 _133_
*169 _134_
*170 _135_
*171 _136_
*172 _137_
*173 _138_
*174 _139_
*175 _140_
*176 _141_
*177 _142_
*178 _143_
*179 _144_
*180 _145_
*181 _146_
*182 _147_
*183 _148_
*184 _149_
*185 _150_
*186 _151_
*187 _152_
*188 _153_
*189 _154_
*190 _155_
*191 _156_
*192 _157_
*193 _158_
*194 _159_
*195 _160_
*196 _161_
*197 _162_
*198 _163_
*199 _164_
*200 _165_
*201 _166_
*202 _167_
*203 _168_
*204 _169_
*205 _170_
*206 _171_
*207 _172_
*208 _173_
*209 _174_
*210 _175_
*211 _176_
*212 _177_
*213 _178_
*214 _179_
*215 _180_
*216 _181_
*217 _182_
*218 _183_
*219 _184_
*220 _185_
*221 _186_
*222 _187_
*223 _188_
*224 _189_
*225 _190_
*226 _191_
*227 _192_
*228 _193_
*229 _194_
*230 _195_
*231 _196_
*232 _197_
*233 _198_
*234 _199_
*235 _200_
*236 _201_
*237 _202_
*238 _203_
*239 _204_
*240 _205_
*241 _206_
*242 _207_
*243 _208_
*244 _209_
*245 _210_
*246 _211_
*247 _212_
*248 _213_
*249 _214_
*250 _215_
*251 _216_
*252 _217_
*253 _218_
*254 _219_
*255 _220_
*256 _221_
*257 _222_
*258 _223_
*259 _224_
*260 _225_
*261 _226_
*262 _227_
*263 _228_
*264 _229_
*265 _230_
*266 _231_
*267 _232_
*268 _233_
*269 _234_
*270 _235_
*271 _236_
*272 _237_
*273 _238_
*274 _239_
*275 _240_
*276 _241_
*277 _242_
*278 _243_
*279 _244_
*280 _245_
*281 _246_
*282 _247_
*283 _248_
*284 _249_
*285 _250_
*286 _251_
*287 _252_
*288 _253_
*289 _254_
*290 _255_
*291 _256_
*292 _257_
*293 _258_
*294 _259_
*295 _260_
*296 _261_
*297 _262_
*298 _263_
*299 _264_
*300 _265_
*301 _266_
*302 _267_
*303 _268_
*304 _269_
*305 _270_
*306 _271_
*307 _272_
*308 _273_
*309 _274_
*310 _275_
*311 _276_
*312 _277_
*313 _278_
*314 _279_
*315 _280_
*316 _281_
*317 _282_
*318 _283_
*319 _284_
*320 _285_
*321 _286_
*322 _287_
*323 _288_
*324 _289_
*325 _290_
*326 _291_
*327 _292_
*328 _293_
*329 _294_
*330 _295_
*331 _296_
*332 _297_
*333 _298_
*334 _299_
*335 _300_
*336 _301_
*337 _302_
*338 _303_
*339 _304_
*340 _305_
*341 _306_
*342 _307_
*343 _308_
*344 _309_
*345 _310_
*346 _311_
*347 _312_
*348 _313_
*349 net1
*350 net10
*351 net11
*352 net12
*353 net13
*354 net14
*355 net15
*356 net16
*357 net17
*358 net18
*359 net19
*360 net2
*361 net20
*362 net21
*363 net22
*364 net23
*365 net24
*366 net25
*367 net26
*368 net27
*369 net28
*370 net29
*371 net3
*372 net30
*373 net31
*374 net32
*375 net33
*376 net34
*377 net35
*378 net36
*379 net37
*380 net38
*381 net39
*382 net4
*383 net40
*384 net41
*385 net42
*386 net43
*387 net44
*388 net45
*389 net46
*390 net47
*391 net48
*392 net49
*393 net5
*394 net50
*395 net51
*396 net52
*397 net6
*398 net7
*399 net8
*400 net9
*401 FILLER_0_0_103
*402 FILLER_0_0_111
*403 FILLER_0_0_113
*404 FILLER_0_0_121
*405 FILLER_0_0_128
*406 FILLER_0_0_141
*407 FILLER_0_0_15
*408 FILLER_0_0_153
*409 FILLER_0_0_161
*410 FILLER_0_0_27
*411 FILLER_0_0_29
*412 FILLER_0_0_3
*413 FILLER_0_0_37
*414 FILLER_0_0_44
*415 FILLER_0_0_57
*416 FILLER_0_0_65
*417 FILLER_0_0_69
*418 FILLER_0_0_85
*419 FILLER_0_0_90
*420 FILLER_0_0_98
*421 FILLER_0_10_109
*422 FILLER_0_10_117
*423 FILLER_0_10_123
*424 FILLER_0_10_129
*425 FILLER_0_10_138
*426 FILLER_0_10_141
*427 FILLER_0_10_150
*428 FILLER_0_10_16
*429 FILLER_0_10_26
*430 FILLER_0_10_3
*431 FILLER_0_10_32
*432 FILLER_0_10_45
*433 FILLER_0_10_57
*434 FILLER_0_10_72
*435 FILLER_0_10_97
*436 FILLER_0_11_106
*437 FILLER_0_11_118
*438 FILLER_0_11_124
*439 FILLER_0_11_136
*440 FILLER_0_11_148
*441 FILLER_0_11_156
*442 FILLER_0_11_162
*443 FILLER_0_11_20
*444 FILLER_0_11_3
*445 FILLER_0_11_31
*446 FILLER_0_11_43
*447 FILLER_0_11_57
*448 FILLER_0_11_69
*449 FILLER_0_11_7
*450 FILLER_0_11_81
*451 FILLER_0_11_87
*452 FILLER_0_12_104
*453 FILLER_0_12_115
*454 FILLER_0_12_132
*455 FILLER_0_12_141
*456 FILLER_0_12_150
*457 FILLER_0_12_162
*458 FILLER_0_12_21
*459 FILLER_0_12_27
*460 FILLER_0_12_29
*461 FILLER_0_12_37
*462 FILLER_0_12_50
*463 FILLER_0_12_66
*464 FILLER_0_12_71
*465 FILLER_0_12_81
*466 FILLER_0_12_9
*467 FILLER_0_12_92
*468 FILLER_0_13_110
*469 FILLER_0_13_118
*470 FILLER_0_13_126
*471 FILLER_0_13_15
*472 FILLER_0_13_161
*473 FILLER_0_13_24
*474 FILLER_0_13_3
*475 FILLER_0_13_36
*476 FILLER_0_13_48
*477 FILLER_0_13_57
*478 FILLER_0_13_81
*479 FILLER_0_13_85
*480 FILLER_0_13_91
*481 FILLER_0_13_99
*482 FILLER_0_14_102
*483 FILLER_0_14_114
*484 FILLER_0_14_127
*485 FILLER_0_14_139
*486 FILLER_0_14_141
*487 FILLER_0_14_149
*488 FILLER_0_14_156
*489 FILLER_0_14_21
*490 FILLER_0_14_26
*491 FILLER_0_14_40
*492 FILLER_0_14_47
*493 FILLER_0_14_51
*494 FILLER_0_14_64
*495 FILLER_0_14_81
*496 FILLER_0_14_85
*497 FILLER_0_14_9
*498 FILLER_0_15_107
*499 FILLER_0_15_111
*500 FILLER_0_15_113
*501 FILLER_0_15_121
*502 FILLER_0_15_137
*503 FILLER_0_15_149
*504 FILLER_0_15_21
*505 FILLER_0_15_27
*506 FILLER_0_15_33
*507 FILLER_0_15_43
*508 FILLER_0_15_6
*509 FILLER_0_15_71
*510 FILLER_0_15_83
*511 FILLER_0_15_95
*512 FILLER_0_16_100
*513 FILLER_0_16_111
*514 FILLER_0_16_125
*515 FILLER_0_16_138
*516 FILLER_0_16_141
*517 FILLER_0_16_149
*518 FILLER_0_16_159
*519 FILLER_0_16_18
*520 FILLER_0_16_26
*521 FILLER_0_16_29
*522 FILLER_0_16_41
*523 FILLER_0_16_53
*524 FILLER_0_16_57
*525 FILLER_0_16_6
*526 FILLER_0_16_77
*527 FILLER_0_16_83
*528 FILLER_0_16_88
*529 FILLER_0_17_107
*530 FILLER_0_17_111
*531 FILLER_0_17_116
*532 FILLER_0_17_128
*533 FILLER_0_17_140
*534 FILLER_0_17_15
*535 FILLER_0_17_155
*536 FILLER_0_17_3
*537 FILLER_0_17_31
*538 FILLER_0_17_36
*539 FILLER_0_17_48
*540 FILLER_0_17_57
*541 FILLER_0_17_69
*542 FILLER_0_17_77
*543 FILLER_0_17_84
*544 FILLER_0_18_104
*545 FILLER_0_18_116
*546 FILLER_0_18_130
*547 FILLER_0_18_141
*548 FILLER_0_18_153
*549 FILLER_0_18_161
*550 FILLER_0_18_20
*551 FILLER_0_18_29
*552 FILLER_0_18_3
*553 FILLER_0_18_42
*554 FILLER_0_18_58
*555 FILLER_0_18_70
*556 FILLER_0_18_79
*557 FILLER_0_18_83
*558 FILLER_0_18_92
*559 FILLER_0_19_101
*560 FILLER_0_19_109
*561 FILLER_0_19_120
*562 FILLER_0_19_139
*563 FILLER_0_19_143
*564 FILLER_0_19_151
*565 FILLER_0_19_18
*566 FILLER_0_19_30
*567 FILLER_0_19_41
*568 FILLER_0_19_47
*569 FILLER_0_19_54
*570 FILLER_0_19_57
*571 FILLER_0_19_7
*572 FILLER_0_19_84
*573 FILLER_0_19_96
*574 FILLER_0_1_104
*575 FILLER_0_1_123
*576 FILLER_0_1_135
*577 FILLER_0_1_147
*578 FILLER_0_1_15
*579 FILLER_0_1_159
*580 FILLER_0_1_19
*581 FILLER_0_1_39
*582 FILLER_0_1_57
*583 FILLER_0_1_87
*584 FILLER_0_1_95
*585 FILLER_0_20_103
*586 FILLER_0_20_107
*587 FILLER_0_20_111
*588 FILLER_0_20_115
*589 FILLER_0_20_119
*590 FILLER_0_20_137
*591 FILLER_0_20_147
*592 FILLER_0_20_15
*593 FILLER_0_20_29
*594 FILLER_0_20_47
*595 FILLER_0_20_55
*596 FILLER_0_20_6
*597 FILLER_0_20_62
*598 FILLER_0_20_72
*599 FILLER_0_20_76
*600 FILLER_0_20_82
*601 FILLER_0_20_89
*602 FILLER_0_20_97
*603 FILLER_0_21_107
*604 FILLER_0_21_111
*605 FILLER_0_21_113
*606 FILLER_0_21_125
*607 FILLER_0_21_137
*608 FILLER_0_21_149
*609 FILLER_0_21_161
*610 FILLER_0_21_18
*611 FILLER_0_21_28
*612 FILLER_0_21_32
*613 FILLER_0_21_36
*614 FILLER_0_21_46
*615 FILLER_0_21_54
*616 FILLER_0_21_57
*617 FILLER_0_21_74
*618 FILLER_0_21_98
*619 FILLER_0_22_102
*620 FILLER_0_22_113
*621 FILLER_0_22_128
*622 FILLER_0_22_141
*623 FILLER_0_22_153
*624 FILLER_0_22_161
*625 FILLER_0_22_22
*626 FILLER_0_22_55
*627 FILLER_0_22_63
*628 FILLER_0_22_7
*629 FILLER_0_22_71
*630 FILLER_0_22_83
*631 FILLER_0_22_92
*632 FILLER_0_22_98
*633 FILLER_0_23_11
*634 FILLER_0_23_113
*635 FILLER_0_23_121
*636 FILLER_0_23_145
*637 FILLER_0_23_157
*638 FILLER_0_23_18
*639 FILLER_0_23_3
*640 FILLER_0_23_30
*641 FILLER_0_23_35
*642 FILLER_0_23_40
*643 FILLER_0_23_52
*644 FILLER_0_23_57
*645 FILLER_0_23_68
*646 FILLER_0_23_80
*647 FILLER_0_23_92
*648 FILLER_0_24_100
*649 FILLER_0_24_112
*650 FILLER_0_24_124
*651 FILLER_0_24_136
*652 FILLER_0_24_141
*653 FILLER_0_24_15
*654 FILLER_0_24_153
*655 FILLER_0_24_27
*656 FILLER_0_24_29
*657 FILLER_0_24_3
*658 FILLER_0_24_41
*659 FILLER_0_24_53
*660 FILLER_0_24_64
*661 FILLER_0_24_77
*662 FILLER_0_24_83
*663 FILLER_0_24_85
*664 FILLER_0_25_101
*665 FILLER_0_25_109
*666 FILLER_0_25_116
*667 FILLER_0_25_129
*668 FILLER_0_25_135
*669 FILLER_0_25_145
*670 FILLER_0_25_15
*671 FILLER_0_25_157
*672 FILLER_0_25_27
*673 FILLER_0_25_3
*674 FILLER_0_25_39
*675 FILLER_0_25_47
*676 FILLER_0_25_54
*677 FILLER_0_25_64
*678 FILLER_0_25_72
*679 FILLER_0_25_84
*680 FILLER_0_25_96
*681 FILLER_0_26_114
*682 FILLER_0_26_134
*683 FILLER_0_26_148
*684 FILLER_0_26_15
*685 FILLER_0_26_160
*686 FILLER_0_26_27
*687 FILLER_0_26_29
*688 FILLER_0_26_3
*689 FILLER_0_26_41
*690 FILLER_0_26_53
*691 FILLER_0_26_61
*692 FILLER_0_26_81
*693 FILLER_0_26_98
*694 FILLER_0_27_104
*695 FILLER_0_27_113
*696 FILLER_0_27_131
*697 FILLER_0_27_139
*698 FILLER_0_27_147
*699 FILLER_0_27_15
*700 FILLER_0_27_156
*701 FILLER_0_27_162
*702 FILLER_0_27_27
*703 FILLER_0_27_29
*704 FILLER_0_27_3
*705 FILLER_0_27_41
*706 FILLER_0_27_53
*707 FILLER_0_27_57
*708 FILLER_0_27_65
*709 FILLER_0_27_71
*710 FILLER_0_27_83
*711 FILLER_0_27_85
*712 FILLER_0_27_97
*713 FILLER_0_2_105
*714 FILLER_0_2_117
*715 FILLER_0_2_123
*716 FILLER_0_2_131
*717 FILLER_0_2_148
*718 FILLER_0_2_156
*719 FILLER_0_2_21
*720 FILLER_0_2_27
*721 FILLER_0_2_29
*722 FILLER_0_2_36
*723 FILLER_0_2_48
*724 FILLER_0_2_64
*725 FILLER_0_2_72
*726 FILLER_0_2_77
*727 FILLER_0_2_83
*728 FILLER_0_2_85
*729 FILLER_0_2_9
*730 FILLER_0_2_93
*731 FILLER_0_3_106
*732 FILLER_0_3_129
*733 FILLER_0_3_13
*734 FILLER_0_3_146
*735 FILLER_0_3_158
*736 FILLER_0_3_162
*737 FILLER_0_3_30
*738 FILLER_0_3_38
*739 FILLER_0_3_50
*740 FILLER_0_3_57
*741 FILLER_0_3_65
*742 FILLER_0_3_73
*743 FILLER_0_3_94
*744 FILLER_0_4_113
*745 FILLER_0_4_125
*746 FILLER_0_4_137
*747 FILLER_0_4_141
*748 FILLER_0_4_153
*749 FILLER_0_4_161
*750 FILLER_0_4_27
*751 FILLER_0_4_29
*752 FILLER_0_4_36
*753 FILLER_0_4_48
*754 FILLER_0_4_79
*755 FILLER_0_4_83
*756 FILLER_0_4_85
*757 FILLER_0_4_97
*758 FILLER_0_5_102
*759 FILLER_0_5_106
*760 FILLER_0_5_118
*761 FILLER_0_5_126
*762 FILLER_0_5_136
*763 FILLER_0_5_148
*764 FILLER_0_5_160
*765 FILLER_0_5_20
*766 FILLER_0_5_28
*767 FILLER_0_5_3
*768 FILLER_0_5_48
*769 FILLER_0_5_70
*770 FILLER_0_5_78
*771 FILLER_0_5_91
*772 FILLER_0_5_95
*773 FILLER_0_6_109
*774 FILLER_0_6_155
*775 FILLER_0_6_22
*776 FILLER_0_6_29
*777 FILLER_0_6_3
*778 FILLER_0_6_33
*779 FILLER_0_6_41
*780 FILLER_0_6_49
*781 FILLER_0_6_58
*782 FILLER_0_6_64
*783 FILLER_0_6_71
*784 FILLER_0_6_78
*785 FILLER_0_6_97
*786 FILLER_0_7_101
*787 FILLER_0_7_109
*788 FILLER_0_7_120
*789 FILLER_0_7_130
*790 FILLER_0_7_138
*791 FILLER_0_7_150
*792 FILLER_0_7_162
*793 FILLER_0_7_27
*794 FILLER_0_7_39
*795 FILLER_0_7_54
*796 FILLER_0_7_74
*797 FILLER_0_7_79
*798 FILLER_0_7_89
*799 FILLER_0_8_101
*800 FILLER_0_8_122
*801 FILLER_0_8_134
*802 FILLER_0_8_141
*803 FILLER_0_8_153
*804 FILLER_0_8_161
*805 FILLER_0_8_26
*806 FILLER_0_8_29
*807 FILLER_0_8_3
*808 FILLER_0_8_55
*809 FILLER_0_8_61
*810 FILLER_0_8_66
*811 FILLER_0_8_80
*812 FILLER_0_8_85
*813 FILLER_0_8_93
*814 FILLER_0_9_103
*815 FILLER_0_9_113
*816 FILLER_0_9_126
*817 FILLER_0_9_130
*818 FILLER_0_9_137
*819 FILLER_0_9_151
*820 FILLER_0_9_17
*821 FILLER_0_9_24
*822 FILLER_0_9_42
*823 FILLER_0_9_61
*824 FILLER_0_9_73
*825 FILLER_0_9_81
*826 FILLER_0_9_89
*827 FILLER_0_9_96
*828 PHY_EDGE_ROW_0_Left_28
*829 PHY_EDGE_ROW_0_Right_0
*830 PHY_EDGE_ROW_10_Left_38
*831 PHY_EDGE_ROW_10_Right_10
*832 PHY_EDGE_ROW_11_Left_39
*833 PHY_EDGE_ROW_11_Right_11
*834 PHY_EDGE_ROW_12_Left_40
*835 PHY_EDGE_ROW_12_Right_12
*836 PHY_EDGE_ROW_13_Left_41
*837 PHY_EDGE_ROW_13_Right_13
*838 PHY_EDGE_ROW_14_Left_42
*839 PHY_EDGE_ROW_14_Right_14
*840 PHY_EDGE_ROW_15_Left_43
*841 PHY_EDGE_ROW_15_Right_15
*842 PHY_EDGE_ROW_16_Left_44
*843 PHY_EDGE_ROW_16_Right_16
*844 PHY_EDGE_ROW_17_Left_45
*845 PHY_EDGE_ROW_17_Right_17
*846 PHY_EDGE_ROW_18_Left_46
*847 PHY_EDGE_ROW_18_Right_18
*848 PHY_EDGE_ROW_19_Left_47
*849 PHY_EDGE_ROW_19_Right_19
*850 PHY_EDGE_ROW_1_Left_29
*851 PHY_EDGE_ROW_1_Right_1
*852 PHY_EDGE_ROW_20_Left_48
*853 PHY_EDGE_ROW_20_Right_20
*854 PHY_EDGE_ROW_21_Left_49
*855 PHY_EDGE_ROW_21_Right_21
*856 PHY_EDGE_ROW_22_Left_50
*857 PHY_EDGE_ROW_22_Right_22
*858 PHY_EDGE_ROW_23_Left_51
*859 PHY_EDGE_ROW_23_Right_23
*860 PHY_EDGE_ROW_24_Left_52
*861 PHY_EDGE_ROW_24_Right_24
*862 PHY_EDGE_ROW_25_Left_53
*863 PHY_EDGE_ROW_25_Right_25
*864 PHY_EDGE_ROW_26_Left_54
*865 PHY_EDGE_ROW_26_Right_26
*866 PHY_EDGE_ROW_27_Left_55
*867 PHY_EDGE_ROW_27_Right_27
*868 PHY_EDGE_ROW_2_Left_30
*869 PHY_EDGE_ROW_2_Right_2
*870 PHY_EDGE_ROW_3_Left_31
*871 PHY_EDGE_ROW_3_Right_3
*872 PHY_EDGE_ROW_4_Left_32
*873 PHY_EDGE_ROW_4_Right_4
*874 PHY_EDGE_ROW_5_Left_33
*875 PHY_EDGE_ROW_5_Right_5
*876 PHY_EDGE_ROW_6_Left_34
*877 PHY_EDGE_ROW_6_Right_6
*878 PHY_EDGE_ROW_7_Left_35
*879 PHY_EDGE_ROW_7_Right_7
*880 PHY_EDGE_ROW_8_Left_36
*881 PHY_EDGE_ROW_8_Right_8
*882 PHY_EDGE_ROW_9_Left_37
*883 PHY_EDGE_ROW_9_Right_9
*884 TAP_TAPCELL_ROW_0_56
*885 TAP_TAPCELL_ROW_0_57
*886 TAP_TAPCELL_ROW_0_58
*887 TAP_TAPCELL_ROW_0_59
*888 TAP_TAPCELL_ROW_0_60
*889 TAP_TAPCELL_ROW_10_83
*890 TAP_TAPCELL_ROW_10_84
*891 TAP_TAPCELL_ROW_10_85
*892 TAP_TAPCELL_ROW_11_86
*893 TAP_TAPCELL_ROW_11_87
*894 TAP_TAPCELL_ROW_12_88
*895 TAP_TAPCELL_ROW_12_89
*896 TAP_TAPCELL_ROW_12_90
*897 TAP_TAPCELL_ROW_13_91
*898 TAP_TAPCELL_ROW_13_92
*899 TAP_TAPCELL_ROW_14_93
*900 TAP_TAPCELL_ROW_14_94
*901 TAP_TAPCELL_ROW_14_95
*902 TAP_TAPCELL_ROW_15_96
*903 TAP_TAPCELL_ROW_15_97
*904 TAP_TAPCELL_ROW_16_100
*905 TAP_TAPCELL_ROW_16_98
*906 TAP_TAPCELL_ROW_16_99
*907 TAP_TAPCELL_ROW_17_101
*908 TAP_TAPCELL_ROW_17_102
*909 TAP_TAPCELL_ROW_18_103
*910 TAP_TAPCELL_ROW_18_104
*911 TAP_TAPCELL_ROW_18_105
*912 TAP_TAPCELL_ROW_19_106
*913 TAP_TAPCELL_ROW_19_107
*914 TAP_TAPCELL_ROW_1_61
*915 TAP_TAPCELL_ROW_1_62
*916 TAP_TAPCELL_ROW_20_108
*917 TAP_TAPCELL_ROW_20_109
*918 TAP_TAPCELL_ROW_20_110
*919 TAP_TAPCELL_ROW_21_111
*920 TAP_TAPCELL_ROW_21_112
*921 TAP_TAPCELL_ROW_22_113
*922 TAP_TAPCELL_ROW_22_114
*923 TAP_TAPCELL_ROW_22_115
*924 TAP_TAPCELL_ROW_23_116
*925 TAP_TAPCELL_ROW_23_117
*926 TAP_TAPCELL_ROW_24_118
*927 TAP_TAPCELL_ROW_24_119
*928 TAP_TAPCELL_ROW_24_120
*929 TAP_TAPCELL_ROW_25_121
*930 TAP_TAPCELL_ROW_25_122
*931 TAP_TAPCELL_ROW_26_123
*932 TAP_TAPCELL_ROW_26_124
*933 TAP_TAPCELL_ROW_26_125
*934 TAP_TAPCELL_ROW_27_126
*935 TAP_TAPCELL_ROW_27_127
*936 TAP_TAPCELL_ROW_27_128
*937 TAP_TAPCELL_ROW_27_129
*938 TAP_TAPCELL_ROW_27_130
*939 TAP_TAPCELL_ROW_2_63
*940 TAP_TAPCELL_ROW_2_64
*941 TAP_TAPCELL_ROW_2_65
*942 TAP_TAPCELL_ROW_3_66
*943 TAP_TAPCELL_ROW_3_67
*944 TAP_TAPCELL_ROW_4_68
*945 TAP_TAPCELL_ROW_4_69
*946 TAP_TAPCELL_ROW_4_70
*947 TAP_TAPCELL_ROW_5_71
*948 TAP_TAPCELL_ROW_5_72
*949 TAP_TAPCELL_ROW_6_73
*950 TAP_TAPCELL_ROW_6_74
*951 TAP_TAPCELL_ROW_6_75
*952 TAP_TAPCELL_ROW_7_76
*953 TAP_TAPCELL_ROW_7_77
*954 TAP_TAPCELL_ROW_8_78
*955 TAP_TAPCELL_ROW_8_79
*956 TAP_TAPCELL_ROW_8_80
*957 TAP_TAPCELL_ROW_9_81
*958 TAP_TAPCELL_ROW_9_82
*959 _314_
*960 _315_
*961 _316_
*962 _317_
*963 _318_
*964 _319_
*965 _320_
*966 _321_
*967 _322_
*968 _323_
*969 _324_
*970 _325_
*971 _326_
*972 _327_
*973 _328_
*974 _329_
*975 _330_
*976 _331_
*977 _332_
*978 _333_
*979 _334_
*980 _335_
*981 _336_
*982 _337_
*983 _338_
*984 _339_
*985 _340_
*986 _341_
*987 _342_
*988 _343_
*989 _344_
*990 _345_
*991 _346_
*992 _347_
*993 _348_
*994 _349_
*995 _350_
*996 _351_
*997 _352_
*998 _353_
*999 _354_
*1000 _355_
*1001 _356_
*1002 _357_
*1003 _358_
*1004 _359_
*1005 _360_
*1006 _361_
*1007 _362_
*1008 _363_
*1009 _364_
*1010 _365_
*1011 _366_
*1012 _367_
*1013 _368_
*1014 _369_
*1015 _370_
*1016 _371_
*1017 _372_
*1018 _373_
*1019 _374_
*1020 _375_
*1021 _376_
*1022 _377_
*1023 _378_
*1024 _379_
*1025 _380_
*1026 _381_
*1027 _382_
*1028 _383_
*1029 _384_
*1030 _385_
*1031 _386_
*1032 _387_
*1033 _388_
*1034 _389_
*1035 _390_
*1036 _391_
*1037 _392_
*1038 _393_
*1039 _394_
*1040 _395_
*1041 _396_
*1042 _397_
*1043 _398_
*1044 _399_
*1045 _400_
*1046 _401_
*1047 _402_
*1048 _403_
*1049 _404_
*1050 _405_
*1051 _406_
*1052 _407_
*1053 _408_
*1054 _409_
*1055 _410_
*1056 _411_
*1057 _412_
*1058 _413_
*1059 _414_
*1060 _415_
*1061 _416_
*1062 _417_
*1063 _418_
*1064 _419_
*1065 _420_
*1066 _421_
*1067 _422_
*1068 _423_
*1069 _424_
*1070 _425_
*1071 _426_
*1072 _427_
*1073 _428_
*1074 _429_
*1075 _430_
*1076 _431_
*1077 _432_
*1078 _433_
*1079 _434_
*1080 _435_
*1081 _436_
*1082 _437_
*1083 _438_
*1084 _439_
*1085 _440_
*1086 _441_
*1087 _442_
*1088 _443_
*1089 _444_
*1090 _445_
*1091 _446_
*1092 _447_
*1093 _448_
*1094 _449_
*1095 _450_
*1096 _451_
*1097 _452_
*1098 _453_
*1099 _454_
*1100 _455_
*1101 _456_
*1102 _457_
*1103 _458_
*1104 _459_
*1105 _460_
*1106 _461_
*1107 _462_
*1108 _463_
*1109 _464_
*1110 _465_
*1111 _466_
*1112 _467_
*1113 _468_
*1114 _469_
*1115 _470_
*1116 _471_
*1117 _472_
*1118 _473_
*1119 _474_
*1120 _475_
*1121 _476_
*1122 _477_
*1123 _478_
*1124 _479_
*1125 _480_
*1126 _481_
*1127 _482_
*1128 _483_
*1129 _484_
*1130 _485_
*1131 _486_
*1132 _487_
*1133 _488_
*1134 _489_
*1135 _490_
*1136 _491_
*1137 _492_
*1138 _493_
*1139 _494_
*1140 _495_
*1141 _496_
*1142 _497_
*1143 _498_
*1144 _499_
*1145 _500_
*1146 _501_
*1147 _502_
*1148 _503_
*1149 _504_
*1150 _505_
*1151 _506_
*1152 _507_
*1153 _508_
*1154 _509_
*1155 _510_
*1156 _511_
*1157 _512_
*1158 _513_
*1159 _514_
*1160 _515_
*1161 _516_
*1162 _517_
*1163 _518_
*1164 _519_
*1165 _520_
*1166 _521_
*1167 _522_
*1168 _523_
*1169 _524_
*1170 _525_
*1171 _526_
*1172 _527_
*1173 _528_
*1174 _529_
*1175 _530_
*1176 _531_
*1177 _532_
*1178 _533_
*1179 _534_
*1180 _535_
*1181 _536_
*1182 _537_
*1183 _538_
*1184 _539_
*1185 _540_
*1186 _541_
*1187 _542_
*1188 _543_
*1189 _544_
*1190 _545_
*1191 _546_
*1192 _547_
*1193 _548_
*1194 _549_
*1195 _550_
*1196 _551_
*1197 _552_
*1198 _553_
*1199 _554_
*1200 _555_
*1201 _556_
*1202 _557_
*1203 _558_
*1204 _559_
*1205 _560_
*1206 _561_
*1207 _562_
*1208 _563_
*1209 _564_
*1210 _565_
*1211 _566_
*1212 _567_
*1213 _568_
*1214 _569_
*1215 _570_
*1216 _571_
*1217 _572_
*1218 _573_
*1219 _574_
*1220 _575_
*1221 _576_
*1222 _577_
*1223 _578_
*1224 _579_
*1225 _580_
*1226 _581_
*1227 _582_
*1228 _583_
*1229 _584_
*1230 _585_
*1231 _586_
*1232 _587_
*1233 _588_
*1234 _589_
*1235 _590_
*1236 _591_
*1237 _592_
*1238 _593_
*1239 _594_
*1240 _595_
*1241 _596_
*1242 _597_
*1243 _598_
*1244 _599_
*1245 _600_
*1246 _601_
*1247 _602_
*1248 _603_
*1249 _604_
*1250 _605_
*1251 _606_
*1252 _607_
*1253 _608_
*1254 _609_
*1255 _610_
*1256 _611_
*1257 _612_
*1258 _613_
*1259 _614_
*1260 _615_
*1261 _616_
*1262 _617_
*1263 _618_
*1264 _619_
*1265 _620_
*1266 _621_
*1267 _622_
*1268 _623_
*1269 _624_
*1270 _625_
*1271 _626_
*1272 _627_
*1273 _628_
*1274 _629_
*1275 _630_
*1276 _631_
*1277 _632_
*1278 _633_
*1279 _634_
*1280 _635_
*1281 _636_
*1282 _637_
*1283 _638_
*1284 _639_
*1285 _640_
*1286 _641_
*1287 _642_
*1288 _643_
*1289 input1
*1290 input10
*1291 input11
*1292 input12
*1293 input13
*1294 input14
*1295 input15
*1296 input16
*1297 input2
*1298 input3
*1299 input4
*1300 input5
*1301 input6
*1302 input7
*1303 input8
*1304 input9
*1305 output17
*1306 output18
*1307 output19
*1308 output20
*1309 output21
*1310 output22
*1311 output23
*1312 output24
*1313 output25
*1314 output26
*1315 output27
*1316 output28
*1317 output29
*1318 output30
*1319 output31
*1320 output32
*1321 rebuffer1
*1322 rebuffer10
*1323 rebuffer11
*1324 rebuffer12
*1325 rebuffer13
*1326 rebuffer14
*1327 rebuffer15
*1328 rebuffer16
*1329 rebuffer17
*1330 rebuffer18
*1331 rebuffer19
*1332 rebuffer2
*1333 rebuffer20
*1334 rebuffer3
*1335 rebuffer4
*1336 rebuffer5
*1337 rebuffer6
*1338 rebuffer7
*1339 rebuffer8
*1340 rebuffer9

*PORTS
a[0] I
a[1] I
a[2] I
a[3] I
a[4] I
a[5] I
a[6] I
a[7] I
b[0] I
b[1] I
b[2] I
b[3] I
b[4] I
b[5] I
b[6] I
b[7] I
prod[0] O
prod[10] O
prod[11] O
prod[12] O
prod[13] O
prod[14] O
prod[15] O
prod[1] O
prod[2] O
prod[3] O
prod[4] O
prod[5] O
prod[6] O
prod[7] O
prod[8] O
prod[9] O

*D_NET *3 0.00245757
*CONN
*P a[0] I
*I *1289:A I *D sky130_fd_sc_hd__clkbuf_2
*CAP
1 a[0] 0.00104482
2 *1289:A 0
3 *3:13 0.00104482
4 *3:13 *6:13 3.25681e-05
5 *3:13 *14:13 3.49463e-05
6 *3:13 *307:10 0.000177074
7 *3:13 *308:8 9.0924e-05
8 *3:13 *308:30 3.24141e-05
9 *3:13 *349:32 0
*RES
1 a[0] *3:13 30.5662 
2 *3:13 *1289:A 23 
*END

*D_NET *4 0.000636821
*CONN
*P a[1] I
*I *1297:A I *D sky130_fd_sc_hd__clkbuf_2
*CAP
1 a[1] 0.000286492
2 *1297:A 0
3 *4:13 0.000286492
4 *4:13 prod[1] 3.1268e-05
5 *4:13 *14:13 3.25681e-05
6 *4:13 *290:23 0
*RES
1 a[1] *4:13 27.0053 
2 *4:13 *1297:A 23 
*END

*D_NET *5 0.000602867
*CONN
*P a[2] I
*I *1298:A I *D sky130_fd_sc_hd__buf_8
*CAP
1 a[2] 0.00028396
2 *1298:A 0
3 *5:13 0.00028396
4 *5:13 *1291:A 3.49463e-05
*RES
1 a[2] *5:13 27.2332 
2 *5:13 *1298:A 23 
*END

*D_NET *6 0.00103834
*CONN
*P a[3] I
*I *1299:A I *D sky130_fd_sc_hd__buf_6
*CAP
1 a[3] 0.000487254
2 *1299:A 0
3 *6:13 0.000487254
4 *6:13 *11:13 0
5 *6:13 *12:15 3.1268e-05
6 *6:13 *350:8 0
7 *6:13 *350:25 0
8 *3:13 *6:13 3.25681e-05
*RES
1 a[3] *6:13 31.231 
2 *6:13 *1299:A 23 
*END

*D_NET *7 0.00117432
*CONN
*P a[4] I
*I *1300:A I *D sky130_fd_sc_hd__buf_1
*CAP
1 a[4] 0.000540494
2 *1300:A 0.000540494
3 *1300:A prod[4] 0
4 *1300:A *1187:B 7.53384e-06
5 *1300:A *1302:A 0
6 *1300:A *324:14 8.57986e-05
*RES
1 a[4] *1300:A 49.5171 
*END

*D_NET *8 0.000862743
*CONN
*P a[5] I
*I *1301:A I *D sky130_fd_sc_hd__buf_1
*CAP
1 a[5] 0.000431371
2 *1301:A 0.000431371
3 *1301:A prod[4] 0
4 *1301:A *1218:A 0
*RES
1 a[5] *1301:A 47.4664 
*END

*D_NET *9 0.000860826
*CONN
*P a[6] I
*I *1302:A I *D sky130_fd_sc_hd__buf_1
*CAP
1 a[6] 0.000430413
2 *1302:A 0.000430413
3 *1300:A *1302:A 0
*RES
1 a[6] *1302:A 47.4664 
*END

*D_NET *10 0.000666426
*CONN
*P a[7] I
*I *1303:A I *D sky130_fd_sc_hd__buf_1
*CAP
1 a[7] 0.000298267
2 *1303:A 0
3 *10:13 0.000298267
4 *10:13 prod[2] 3.49463e-05
5 *10:13 *1293:A 3.49463e-05
6 *10:13 *45:16 0
*RES
1 a[7] *10:13 27.9375 
2 *10:13 *1303:A 23 
*END

*D_NET *11 0.00101027
*CONN
*P b[0] I
*I *1304:A I *D sky130_fd_sc_hd__clkbuf_2
*CAP
1 b[0] 0.000417605
2 *1304:A 0
3 *11:13 0.000417605
4 *11:13 *1291:A 3.38429e-05
5 *11:13 *12:15 4.2065e-05
6 *11:13 *400:10 9.91548e-05
7 *6:13 *11:13 0
*RES
1 b[0] *11:13 29.1212 
2 *11:13 *1304:A 23 
*END

*D_NET *12 0.000993983
*CONN
*P b[1] I
*I *1290:A I *D sky130_fd_sc_hd__buf_4
*CAP
1 b[1] 0.000429127
2 *1290:A 0
3 *12:15 0.000429127
4 *12:15 *350:8 6.23973e-05
5 *6:13 *12:15 3.1268e-05
6 *11:13 *12:15 4.2065e-05
*RES
1 b[1] *12:15 27.135 
2 *12:15 *1290:A 23 
*END

*D_NET *13 0.000502335
*CONN
*P b[2] I
*I *1291:A I *D sky130_fd_sc_hd__buf_4
*CAP
1 b[2] 0.000216773
2 *1291:A 0.000216773
3 *5:13 *1291:A 3.49463e-05
4 *11:13 *1291:A 3.38429e-05
*RES
1 b[2] *1291:A 49.1767 
*END

*D_NET *14 0.000770705
*CONN
*P b[3] I
*I *1292:A I *D sky130_fd_sc_hd__buf_4
*CAP
1 b[3] 0.000351595
2 *1292:A 0
3 *14:13 0.000351595
4 *14:13 *382:21 0
5 *14:13 *400:38 0
6 *3:13 *14:13 3.49463e-05
7 *4:13 *14:13 3.25681e-05
*RES
1 b[3] *14:13 28.9939 
2 *14:13 *1292:A 23 
*END

*D_NET *15 0.000564791
*CONN
*P b[4] I
*I *1293:A I *D sky130_fd_sc_hd__buf_1
*CAP
1 b[4] 0.00025387
2 *1293:A 0.00025387
3 *1293:A prod[2] 0
4 *1293:A *1294:A 0
5 *1293:A *45:16 2.21044e-05
6 *10:13 *1293:A 3.49463e-05
*RES
1 b[4] *1293:A 47.7832 
*END

*D_NET *16 0.000713559
*CONN
*P b[5] I
*I *1294:A I *D sky130_fd_sc_hd__buf_2
*CAP
1 b[5] 0.000322859
2 *1294:A 0.000322859
3 *1294:A *17:13 3.38429e-05
4 *1294:A *45:10 3.39994e-05
5 *1293:A *1294:A 0
*RES
1 b[5] *1294:A 49.5439 
*END

*D_NET *17 0.000634405
*CONN
*P b[6] I
*I *1295:A I *D sky130_fd_sc_hd__buf_1
*CAP
1 b[6] 0.000300281
2 *1295:A 0
3 *17:13 0.000300281
4 *17:13 *1296:A 0
5 *1294:A *17:13 3.38429e-05
*RES
1 b[6] *17:13 27.5853 
2 *17:13 *1295:A 23 
*END

*D_NET *18 0.000618503
*CONN
*P b[7] I
*I *1296:A I *D sky130_fd_sc_hd__clkbuf_2
*CAP
1 b[7] 0.000281746
2 *1296:A 0.000281746
3 *1296:A *356:20 5.50106e-05
4 *17:13 *1296:A 0
*RES
1 b[7] *1296:A 49.6532 
*END

*D_NET *19 0.000537846
*CONN
*P prod[0] O
*I *1305:X O *D sky130_fd_sc_hd__clkbuf_4
*CAP
1 prod[0] 0.000235718
2 *1305:X 0.000235718
3 prod[0] prod[1] 3.38429e-05
4 prod[0] prod[2] 3.25681e-05
*RES
1 *1305:X prod[0] 49.1767 
*END

*D_NET *20 0.000681731
*CONN
*P prod[10] O
*I *1306:X O *D sky130_fd_sc_hd__clkbuf_4
*CAP
1 prod[10] 0.000340865
2 *1306:X 0.000340865
3 prod[10] prod[9] 0
4 prod[10] *358:8 0
*RES
1 *1306:X prod[10] 48.4047 
*END

*D_NET *21 0.000586824
*CONN
*P prod[11] O
*I *1307:X O *D sky130_fd_sc_hd__buf_2
*CAP
1 prod[11] 0.000275431
2 *1307:X 0.000275431
3 prod[11] *359:12 3.59619e-05
*RES
1 *1307:X prod[11] 47.8691 
*END

*D_NET *22 0.000710214
*CONN
*P prod[12] O
*I *1308:X O *D sky130_fd_sc_hd__clkbuf_4
*CAP
1 prod[12] 0.000355107
2 *1308:X 0.000355107
*RES
1 *1308:X prod[12] 49.1089 
*END

*D_NET *23 0.00122467
*CONN
*P prod[13] O
*I *1309:X O *D sky130_fd_sc_hd__clkbuf_4
*CAP
1 prod[13] 0.000612335
2 *1309:X 0.000612335
*RES
1 *1309:X prod[13] 49.2271 
*END

*D_NET *24 0.00137513
*CONN
*P prod[14] O
*I *1310:X O *D sky130_fd_sc_hd__clkbuf_4
*CAP
1 prod[14] 0.000438528
2 *1310:X 0.000249039
3 *24:12 0.000687567
*RES
1 *1310:X *24:12 41.4696 
2 *24:12 prod[14] 9.62179 
*END

*D_NET *25 0.00103877
*CONN
*P prod[15] O
*I *1311:X O *D sky130_fd_sc_hd__buf_6
*CAP
1 prod[15] 0.000503242
2 *1311:X 0.000503242
3 prod[15] *1129:A 3.22879e-05
*RES
1 *1311:X prod[15] 48.9164 
*END

*D_NET *26 0.00174202
*CONN
*P prod[1] O
*I *1312:X O *D sky130_fd_sc_hd__clkbuf_4
*CAP
1 prod[1] 0.000799134
2 *1312:X 0.000799134
3 prod[1] *1158:A2 2.31532e-05
4 prod[1] *1159:B 2.37942e-05
5 prod[1] *282:44 3.16926e-05
6 prod[0] prod[1] 3.38429e-05
7 *4:13 prod[1] 3.1268e-05
*RES
1 *1312:X prod[1] 49.2546 
*END

*D_NET *27 0.000725004
*CONN
*P prod[2] O
*I *1313:X O *D sky130_fd_sc_hd__clkbuf_4
*CAP
1 prod[2] 0.000297913
2 *1313:X 0.000297913
3 prod[2] *45:16 6.16635e-05
4 prod[0] prod[2] 3.25681e-05
5 *1293:A prod[2] 0
6 *10:13 prod[2] 3.49463e-05
*RES
1 *1313:X prod[2] 48.5734 
*END

*D_NET *28 0.00102786
*CONN
*P prod[3] O
*I *1314:X O *D sky130_fd_sc_hd__clkbuf_4
*CAP
1 prod[3] 0.000486859
2 *1314:X 0.000486859
3 prod[3] *1314:A 5.41385e-05
*RES
1 *1314:X prod[3] 47.57 
*END

*D_NET *29 0.000740866
*CONN
*P prod[4] O
*I *1315:X O *D sky130_fd_sc_hd__clkbuf_4
*CAP
1 prod[4] 0.000370433
2 *1315:X 0.000370433
3 *1300:A prod[4] 0
4 *1301:A prod[4] 0
*RES
1 *1315:X prod[4] 45.9957 
*END

*D_NET *30 0.00103244
*CONN
*P prod[5] O
*I *1316:X O *D sky130_fd_sc_hd__clkbuf_4
*CAP
1 prod[5] 0.000516219
2 *1316:X 0.000516219
*RES
1 *1316:X prod[5] 48.9164 
*END

*D_NET *31 0.000529634
*CONN
*P prod[6] O
*I *1317:X O *D sky130_fd_sc_hd__buf_2
*CAP
1 prod[6] 0.000264817
2 *1317:X 0.000264817
*RES
1 *1317:X prod[6] 47.8691 
*END

*D_NET *32 0.000590499
*CONN
*P prod[7] O
*I *1318:X O *D sky130_fd_sc_hd__clkbuf_4
*CAP
1 prod[7] 0.000295249
2 *1318:X 0.000295249
*RES
1 *1318:X prod[7] 47.7004 
*END

*D_NET *33 0.000569382
*CONN
*P prod[8] O
*I *1319:X O *D sky130_fd_sc_hd__buf_2
*CAP
1 prod[8] 0.000284691
2 *1319:X 0.000284691
*RES
1 *1319:X prod[8] 47.8691 
*END

*D_NET *34 0.00073389
*CONN
*P prod[9] O
*I *1320:X O *D sky130_fd_sc_hd__clkbuf_4
*CAP
1 prod[9] 0.000366945
2 *1320:X 0.000366945
3 prod[9] *374:10 0
4 prod[10] prod[9] 0
*RES
1 *1320:X prod[9] 49.1089 
*END

*D_NET *35 0.00277415
*CONN
*I *1211:C I *D sky130_fd_sc_hd__or3_4
*I *1212:A2 I *D sky130_fd_sc_hd__o21ai_1
*I *1210:Y O *D sky130_fd_sc_hd__a21oi_1
*CAP
1 *1211:C 3.85697e-05
2 *1212:A2 7.57154e-05
3 *1210:Y 0.000551418
4 *35:18 0.000435754
5 *35:14 0.000872886
6 *1211:C *1211:A 3.28357e-06
7 *1211:C *1212:A1 6.60665e-05
8 *1212:A2 *1211:A 2.53095e-05
9 *35:14 *1210:A2 2.13216e-05
10 *35:14 *1264:D 1.26005e-05
11 *35:14 *296:85 2.13216e-05
12 *35:14 *305:8 0
13 *35:14 *305:12 0
14 *35:14 *307:137 1.16814e-05
15 *35:14 *316:54 0
16 *35:14 *345:21 8.50457e-05
17 *35:14 *347:27 0.000136761
18 *35:14 *348:25 0
19 *35:14 *395:14 3.52642e-05
20 *35:14 *398:16 0.000273501
21 *35:18 *1211:A 1.86239e-05
22 *35:18 *1211:B 5.5792e-05
23 *35:18 *1213:B 2.45549e-06
24 *35:18 *36:6 1.23293e-05
25 *35:18 *37:10 1.84489e-05
*RES
1 *1210:Y *35:14 49.7243 
2 *35:14 *35:18 19.4329 
3 *35:18 *1212:A2 24.0979 